[TITLE]

[OPTIONS]
;;Options            Value
;;------------------ ------------
FLOW_UNITS           LPS
INFILTRATION         HORTON
FLOW_ROUTING         DYNWAVE
LINK_OFFSETS         DEPTH
MIN_SLOPE            0
ALLOW_PONDING        NO
SKIP_STEADY_STATE    NO

START_DATE           08/16/2020
START_TIME           00:00:00
REPORT_START_DATE    08/17/2020
REPORT_START_TIME    00:00:00
END_DATE             08/18/2020
END_TIME             00:00:00
SWEEP_START          01/01
SWEEP_END            12/31
DRY_DAYS             1
REPORT_STEP          00:05:00
WET_STEP             00:05:00
DRY_STEP             00:05:00
ROUTING_STEP         60
RULE_STEP            00:00:00

INERTIAL_DAMPING     PARTIAL
NORMAL_FLOW_LIMITED  BOTH
FORCE_MAIN_EQUATION  H-W
VARIABLE_STEP        0.75
LENGTHENING_STEP     0
MIN_SURFAREA         0
MAX_TRIALS           8
HEAD_TOLERANCE       0.0015
SYS_FLOW_TOL         5
LAT_FLOW_TOL         5
MINIMUM_STEP         0.5
THREADS              4

[EVAPORATION]
;;Type          Parameters
;;------------- ----------
CONSTANT         0.0
DRY_ONLY         NO

[JUNCTIONS]
;;               Invert     Max.       Init.      Surcharge  Ponded    
;;Name           Elev.      Depth      Depth      Depth      Area      
;;-------------- ---------- ---------- ---------- ---------- ----------
CN4414305258     143.202    3.223      0          100        0         
CN4452505054     145.196    8.499      0          100        0.135     
CN4474104966     146.133    3.522      0          100        0         
CN4475804997     146.158    3.424      0          100        0         
CN4478404756     166.462    3.661      0          100        0.647     
CN4560504012     154.243    2.739      0          100        2.025     
CN4574403982     155.08     4.068      0          100        0         
CN4593904198     157.142    2.278      0          100        0         
CN4655904303     162.674    4.642      0          100        0.892     
CN4668504445     174.641    4.611      0          100        0.065     
CN4670304619     178.963    5.209      0          100        0.051     
CN4674804753     183.974    4.3        0          100        0.084     
CN4687804159     165.941    4.489      0          100        0.511     
CN4690004897     188.726    6.083      0          100        0.092     
CN4693805018     191.069    6.054      0          100        0.08      
CN4700605241     192.911    4.988      0          100        0.086     
CN4703405337     193.613    4.005      0          100        0.088     
CN4752502917     181.083    4.077      0          100        0.031     
CNMH4693404173   166.346    4.205      0          100        0.417     
DMH-327-090B-1   143.33     4.27       0          0          0         
JP103196         187.876    4.985      0          100        0.139     
JP5428126903     184.461    3.333      0          100        2.468     
MH3005921        184.16     4.02       0          0          0.181     
MH3006762        171.35     4.439      0          0          0.316     
MH3006778        166.8      5.02       0          0          0.249     
MH3006819        160.39     3.39       0          0          0         
MH3006822        161.34     4.75       0          0          0         
MH3008024        184.468    3.656      0          0          0.162     
MH3008043        185.191    3.356      0          0          0.635     
MH3008045        184.28     4.2        0          0          0.2       
MH3008075        185.79     5.088      0          0          0.457     
MH3008076        186.364    5.521      0          0          0.182     
MH3008081        182.16     5.449      0          0          0.187     
MH3008100        191.605    4.293      0          0          0.214     
MH3008102        189.99     8.66       0          0          0.474     
MH3008104        190.903    8.998      0          0          0.352     
MH3008112        187.18     3.35       0          0          0.56      
MH3008115        186.876    6.024      0          0          1.136     
MH3008124        187.236    4.664      0          0          0.466     
MH3008144        195.71     3.545      0          0          0.52      
MH3008148        193.38     5.865      0          0          0.542     
MH3008155        188.815    7.94       0          0          0.551     
MH3008156        189.385    9.245      0          0          0.6       
MH3008192        187.985    8.305      0          0          0.353     
MH3008199        193.873    4.487      0          0          0.699     
MH3008203        195.223    3.62       0          0          0.693     
MH3008212        192.5      3.111      0          0          0.402     
MH3008348        189.6      6.41       0          0          0.022     
MH3008471        194.45     4          0          0          0.988     
MH3008472        193.08     7.16       0          0          0.487     
MH3008476        191.16     8.83       0          0          0.2       
MH3008478        191.9      8.44       0          0          0.514     
MH3008479        197.42     3.91       0          0          12.409    
MH3008481        196.35     3.28       0          0          0.603     
MH3008482        195.81     3.92       0          0          0.665     
MH3008483        194.82     4.57       0          0          0.474     
MH3008484        190.3      8.42       0          0          0.244     
MH3008485        193        3.92       0          0          0.437     
MH3008486        193.46     3.26       0          0          0.076     
MH3008487        194.5      3.33       0          0          0.423     
MH3008488        194.25     3.18       0          0          0.822     
MH3008490        190.8      8.65       0          0          0.618     
MH3008491        196.37     3.71       0          0          0.387     
MH3008492        195.22     4.33       0          0          0.582     
MH3008517        186.5      10.21      0          0          1.31      
MH3008522        184.58     2.81       0          0          0.212     
MH3008524        183.851    3.599      0          0          0.116     
MH3008527        191.83     3.66       0          0          0.194     
MH3008529        190.1      3.82       0          0          0.156     
MH3008530        190.47     3.78       0          0          0.184     
MH327-088-1      141.64     4.849      0          0          0.997     
MH327-089-1      142.96     4.264      0          0          0.548     
MH327-094-1      145.02     5.737      0          0          1.492     
MH327-100-1      147.28     4.553      0          0          1.203     
MH327-102-1      148        3.771      0          0          1.489     
MH4370306053     183.834    2.426      0          0          1.285     
MH4391806014     180.448    1.766      0          0          0.662     
MH4393405533     170.418    3.413      0          0          0.468     
MH4394005887     174.29     2.96       0          0          0.455     
MH4394705818     176.16     2.075      0          0          0.419     
MH4397604995     169.12     3.584      0          0          0.519     
MH4399205858     173.98     2.251      0          0          0.4       
MH4399805670     172.89     2.721      0          0          0.724     
MH4400204910     169.77     4.076      0          0          0.439     
MH4402205925     174.945    1.815      0          0          0.382     
MH4404905513     168.86     3.415      0          0          0.512     
MH4406705916     175.031    0.44       0          0          0         
MH4406904926     171.42     3.592      0          0          0.714     
MH4407705988     175.084    2.606      0          0          0.394     
MH4408405881     171.39     1.938      0          0          0.804     
MH4409504848     172.17     3.686      0          0          0.54      
MH4411505845     161.37     9.08       0          0          1.006     
MH4416405830     169.42     2.939      0          0          0.599     
MH4416605980     167.842    8.464      0          0          0         
MH4418404731     173.26     2.802      0          0          0.407     
MH4422705818     169.24     5.152      0          0          0.738     
MH4424104642     172.72     3.007      0          0          0.454     
MH4424804803     168.65     5.372      0          0          0.393     
MH4425605964     172.82     3.873      0          0          0.573     
MH4427004872     169.19     3.348      0          0          0.881     
MH4429005540     169.33     2.786      0          0          0.596     
MH4429205507     169.49     2.191      0          0          0.386     
MH4429405690     168.67     3.233      0          0          0.73      
MH4430104695     172.33     3.472      0          0          1.376     
MH4434905389     165.51     3.072      0          0          2.064     
MH4435305589     170.08     2.381      0          0          0.604     
MH4435404770     167.9      3.337      0          0          0.447     
MH4435705847     172.71     2.095      0          0          0.688     
MH4435904677     170.99     4.283      0          0          0.461     
MH4438705673     165.43     5.548      0          0          0.23      
MH4440405726     170.19     3.048      0          0          0.3       
MH4441104471     171.86     3.47       0          0          0.542     
MH4442505530     158.8      2.823      0          0          0.58      
MH4442705602     161.08     1.946      0          0          0.425     
MH4443505717     170.5      2.404      0          0          0.12      
MH4443604654     172.05     3.48       0          0          0.297     
MH4443704557     172.83     3.45       0          0          2.028     
MH4443905716     169.02     3.967      0          0          0.215     
MH4445205222     149.8      6.07       0          0          0.993     
MH4447804844     163.458    3.654      0          0          0.849     
MH4448405916     174.809    2.763      0          0          0.629     
MH4449704657     172.45     3.026      0          0          2.321     
MH4449705693     168.2      4.197      0          0          0.374     
MH4453105587     166.28     4.679      0          0          0.032     
MH4453305496     166.98     4.425      0          0          0.273     
MH4453605609     166.59     4.62       0          0          0.068     
MH4454005585     166.369    4.78       0          0          0.52      
MH4454105889     173.68     3.854      0          0          1.451     
MH4454304659     170.81     4.12       0          0          0.497     
MH4454305498     167.07     4.62       0          0          0.451     
MH4454605658     167.17     4.304      0          0          0.211     
MH4454704518     171.85     3.356      0          0          0.637     
MH4454704562     171.45     3.898      0          0          0.586     
MH4458705395     168.08     2.812      0          0          0.476     
MH4463804663     170.01     3.52       0          0          0.26      
MH4463904729     170.54     2.254      0          0          0.663     
MH4464204560     170.78     3.401      0          0          0.996     
MH4464204572     170.67     3.388      0          0          0.532     
MH4464604483     170.56     3.395      0          0          0.482     
MH4464904406     169.87     3.508      0          0          1.01      
MH4465805436     168.5      4          0          0          0.792     
MH4467905208     156.37     8.321      0          0          1.24      
MH4468704665     169.329    3.822      0          0          0.461     
MH4469504790     161.579    5.139      0          0          0.341     
MH4469505709     171.556    3.76       0          0          0.011     
MH4472005348     166        4.016      0          0          0.174     
MH4472105786     173.227    3.129      0          0          0.139     
MH4473904571     168.17     4.616      0          0          0.284     
MH4473905411     167        4.65       0          0          0.296     
MH4475705806     173.076    3.518      0          0          1.613     
MH4476004652     167.427    4.741      0          0          0.137     
MH4477005173     167        2.744      0          0          0.168     
MH4478905044     156.8      8.162      0          0          0.118     
MH4479004669     168.503    3.344      0          0          0.391     
MH4479804783     167.03     4.009      0          0          0.323     
MH4480205404     166.55     3.296      0          0          0.796     
MH4481204312     169.47     3.676      0          0          0.343     
MH4483205399     167.12     3.165      0          0          0.189     
MH4486504631     163.35     8.02       0          0          0.228     
MH4487504513     164.835    7.754      0          0          0.532     
MH4487704237     166.424    5.216      0          0          0.721     
MH4488304360     165.659    7.087      0          0          0.663     
MH4489405125     164.6      5.949      0          0          0.425     
MH4490904604     162.859    8.148      0          0          0.392     
MH4491405283     168.49     3.537      0          0          0.613     
MH4491405475     171.19     3.597      0          0          0.693     
MH4491905646     170.81     4.467      0          0          0         
MH4493905112     165.97     3.754      0          0          0.53      
MH4494404427     169.189    4.435      0          0          0.824     
MH4498805505     169.8      4.022      0          0          0.229     
MH4499704348     170.239    3.325      0          0          1.145     
MH4500405660     172.368    3.166      0          0          2.07      
MH4503205151     166.49     3.869      0          0          0.565     
MH4503705189     165.95     4.119      0          0          0.47      
MH4503805667     171.81     3.602      0          0          0.547     
MH4504705374     169.23     3.583      0          0          1.025     
MH4506804179     169.403    3.235      0          0          0.169     
MH4507304267     170.314    3.559      0          0          0.486     
MH4507904171     169.584    3.265      0          0          0.216     
MH4508004382     170.245    4.462      0          0          0.664     
MH4509004320     170.984    3.822      0          0          0.834     
MH4510204869     166.81     3.952      0          0          0.829     
MH4511205654     170.65     3.792      0          0          0.151     
MH4511904395     170.84     3.992      0          0          0.509     
MH4512305552     168.64     3.827      0          0          0.168     
MH4512605698     173.02     3.286      0          0          1.114     
MH4513305251     165.1      3.009      0          0          0.662     
MH4515105641     169.47     4.5        0          0          0.533     
MH4517704834     166.12     5.445      0          0          0.123     
MH4518204920     151.4      5.087      0          0          0.899     
MH4518305332     165.89     3.463      0          0          0.378     
MH4519505529     169.42     3.48       0          0          0.712     
MH4521105420     166.15     4.153      0          0          0.367     
MH4522005619     170.01     4.948      0          0          0.36      
MH4522605201     164.328    6.385      0          0          0.393     
MH4522705319     165.78     4.658      0          0          0.286     
MH4525404698     169.83     3.838      0          0          0.798     
MH4526705620     172.43     4.117      0          0          0.186     
MH4526805051     161.86     5.673      0          0          0.323     
MH4527105301     165.63     6.361      0          0          0.163     
MH4527205122     164.142    5.228      0          0          0.531     
MH4527605666     176.12     3.08       0          0          0.226     
MH4528504807     168.1      4.716      0          0          0.282     
MH4529305242     168.58     3.25       0          0          0.7       
MH4530605770     181.5      3.516      0          0          0.096     
MH4531305149     165.75     4.031      0          0          0.736     
MH4531805455     170.275    3.829      0          0          0.45      
MH4532005013     156.01     4.99       0          0          1.264     
MH4533705529     173.06     3.857      0          0          0.517     
MH4534005372     170.121    3.736      0          0          0.587     
MH4534305789     182.566    4.023      0          0          0.027     
MH4534404600     170.46     4.98       0          0          0.261     
MH4535505756     184.106    2.763      0          0          0.365     
MH4535705591     176.925    3.125      0          0          0.425     
MH4536105183     164.69     5.783      0          0          0.295     
MH4536305430     171.31     3.348      0          0          0.482     
MH4536905784     183.921    3.69       0          0          0.134     
MH4537205612     177.03     4.342      0          0          0.207     
MH4538805146     159.85     5.56       0          0          0         
MH4538905255     165.23     6.186      0          0          0.389     
MH4539304968     167.35     4.634      0          0          0.429     
MH4539305519     174.16     3.383      0          0          0.522     
MH4539804599     171.17     4.856      0          0          0.287     
MH4540105249     167.75     3.486      0          0          0.126     
MH4543803551     172.96     4.425      0          0          0.46      
MH4543905667     180.34     6.194      0          0          1.643     
MH4544804537     174.99     3.245      0          0          0.253     
MH4545103795     173.67     3.622      0          0          0.991     
MH4549005102     163.26     6.414      0          0          0.098     
MH4549804890     170.389    5.601      0          0          0.305     
MH4550203755     172.338    5.437      0          0          0.223     
MH4552505137     165.92     4.763      0          0          0.414     
MH4552805628     183.77     3.685      0          0          0.266     
MH4554204636     173.95     3.073      0          0          0.627     
MH4554904486     172.93     4.35       0          0          0.33      
MH4557804130     167.5      4.892      0          0          0.245     
MH4558004224     171.93     3.001      0          0          0.911     
MH4558305198     168.66     4.33       0          0          0.576     
MH4559504442     173.45     2.935      0          0          0.217     
MH4560004289     171.72     4.29       0          0          0.604     
MH4560404605     174.47     3.089      0          0          1.224     
MH4560904434     172.75     3.66       0          0          0.294     
MH4562705556     181.31     4.49       0          0          0.141     
MH4564104420     171.04     4.557      0          0          0.359     
MH4564804160     169.35     4.108      0          0          0.632     
MH4565604767     175.15     3.058      0          0          0.825     
MH4565904203     171.15     3.01       0          0          0.664     
MH4566103742     173.43     3.728      0          0          2.869     
MH4566404669     174.52     2.924      0          0          0.264     
MH4567405579     184.779    3.263      0          0          1.272     
MH4567505454     178.4      4.047      0          0          0.625     
MH4567704662     174.51     2.946      0          0          0.382     
MH4574004375     169.48     4.032      0          0          0.354     
MH4575703888     159.11     11.337     0          0          0.907     
MH4575905416     179.88     3.392      0          0          0.635     
MH4576204803     174.64     3.149      0          0          0.471     
MH4576504656     173.25     3.863      0          0          0.369     
MH4577304713     174.2      3.127      0          0          0.821     
MH4577604184     168.65     3.717      0          0          1.162     
MH4578003602     172.25     4.976      0          0          0.24      
MH4578603592     173.73     3.74       0          0          0.487     
MH4578903901     168.03     3.554      0          0          0.989     
MH4579704424     169.61     3.705      0          0          0.375     
MH4580004350     168.47     3.943      0          0          0.505     
MH4580105241     173.75     5.174      0          0          0.196     
MH4580503685     171.52     4.259      0          0          0.117     
MH4583705697     189.89     4.945      0          0          1.723     
MH4584405508     186.03     3.609      0          0          0.047     
MH4584505497     185.366    3.984      0          0          0.098     
MH4586203366     169.422    7.111      0          0          1.364     
MH4587303362     172.416    4.218      0          0          1.066     
MH4587404342     168.06     5.342      0          0          0.585     
MH4588603658     167.6      6.882      0          0          0.31      
MH4588903764     166.23     7.225      0          0          0.266     
MH4589505406     183.04     3.358      0          0          0.229     
MH4589905407     182.2      4.17       0          0          0.289     
MH4591505930     192.93     2.966      0          0          1.887     
MH4591903551     168.771    7.56       0          0          0.215     
MH4592005489     187.46     3.329      0          0          0.684     
MH4593803614     168.515    7.726      0          0          0.091     
MH4594203648     168.004    7.415      0          0          0.334     
MH4594705375     181.36     4.315      0          0          0.291     
MH4595404359     167.83     6.752      0          0          0.437     
MH4597204481     170.21     4.846      0          0          0.454     
MH4597805534     186.72     4.13       0          0          0.668     
MH4598403179     170.688    5.171      0          0          0.718     
MH4598704365     168.28     5.862      0          0          0.158     
MH4599903226     172.79     4.136      0          0          2.071     
MH4600405044     175.74     4.22       0          0          2.519     
MH4600503784     171.39     5.959      0          0          0.503     
MH4601505480     184.74     5.939      0          0          0.239     
MH4601704717     173.74     3.086      0          0          0.405     
MH4601803166     170.811    5.255      0          0          0.175     
MH4603305658     191.63     2.492      0          0          0.182     
MH4603504725     173.7      3.378      0          0          0.78      
MH4603803737-SAN 175.42     2.646      0          100        0.23      
MH4603904057     172.24     3.882      0          0          2.034     
MH4604505003     176.35     4.18       0          0          0.14      
MH4604603142     171.723    4.525      0          0          0.201     
MH4604905120     176.83     4.5        0          0          0.519     
MH4605903707     174.11     3.658      0          0          0.335     
MH4606005378     186.55     3.616      0          0          0.608     
MH4606102979     173.12     2.965      0          0          3.292     
MH4606803856     174.73     3.501      0          0          0.751     
MH4607905204     181.1      3.762      0          0          0.421     
MH4609903113     171.098    5.504      0          0          0.371     
MH4610305822     191.42     2.864      0          0          1.595     
MH4612303190     171.86     5.187      0          0          0.303     
MH4613004862     175.42     4.102      0          0          0.454     
MH4614005436     188.86     3.59       0          0          0.505     
MH4614905455     188.18     4.555      0          0          0.365     
MH4616403847     176.22     3.582      0          0          1.438     
MH4616605618     189.178    5.4        0          0          0.417     
MH4617803889     175.33     4.084      0          0          0.257     
MH4621103713     175.81     4.618      0          0          1.212     
MH4622205398     189.89     3.273      0          0          0.647     
MH4622505015     178.67     5.027      0          0          0.287     
MH4623605632     189.81     5.24       0          0          0.252     
MH4624504053     173.07     3.55       0          0          0.53      
MH4629805363     189.38     3.779      0          0          0.223     
MH4630304026     173.58     2.969      0          0          1.301     
MH4634605435     189.98     4.006      0          0          0.213     
MH4635005021     183.75     3.54       0          0          0.549     
MH4636105521     191.17     3.935      0          0          1.897     
MH4636406014     191.25     3.318      0          0          0.299     
MH4637205582     192.63     3.375      0          0          0.328     
MH4637403836     177.01     3.303      0          0          0.209     
MH4640605221     189.17     3.194      0          0          0.743     
MH4641404794     180.48     3.709      0          0          0.295     
MH4642005324     191.01     3.52       0          0          1.013     
MH4642204819     180.72     4.07       0          0          0.447     
MH4642903928     175.85     3.17       0          0          0.211     
MH4642904937     183.33     4.298      0          0          0.47      
MH4643305597     192.2      4.364      0          0          0.772     
MH4645003606     180.51     3.177      0          0          0.377     
MH4646004094     175.86     2.855      0          0          4.018     
MH4646105306     190.87     4.103      0          0          0.26      
MH4646403528     181.31     3.104      0          0          0.469     
MH4646903127     172.89     6.144      0          0          0.085     
MH4647903455     181.55     3.099      0          0          1.991     
MH4648605272     190.73     4.091      0          0          0.518     
MH4649405195     190.04     3.82       0          0          0.461     
MH4649805814     192.97     2.983      0          0          0.827     
MH4650704006     174.77     3.389      0          0          0.182     
MH4652303118     172.52     6.833      0          0          0.089     
MH4652405436     192.86     3.693      0          0          0.388     
MH4653005941     193.58     2.116      0          0          0.439     
MH4653403012     173.39     4.81       0          0          0.384     
MH4653802675     177.23     2.808      0          0          0.896     
MH4654904795     184.1      3.001      0          0          2.242     
MH4655005487     193.09     3.547      0          0          1.267     
MH4655102559     175.95     3.04       0          0          1.218     
MH4656105281     192.35     3.978      0          0          0.474     
MH4658002806     174.38     4.675      0          0          0.685     
MH4658505099     190.65     3.686      0          0          0.956     
MH4659603418     179.78     4.089      0          0          0.327     
MH4660602721     174.67     4.61       0          0          0.383     
MH4661305187     192.54     3.578      0          0          1.305     
MH4661503121     175.9      4.902      0          0          0.171     
MH4661902917     173.98     4.716      0          0          0.357     
MH4662603926     177.24     3.006      0          0          2.503     
MH4664505483     193.36     4.004      0          0          0.809     
MH4665202966     173.8      6.016      0          0          0.537     
MH4665704764     183.89     3.902      0          0          2.286     
MH4666103044     177.7      3.546      0          0          0.512     
MH4666103258     181.45     3.741      0          0          0.152     
MH4666803420     179.16     3.593      0          0          0.297     
MH4667802680     174.99     3.812      0          0          0.63      
MH4667903500     179.97     3.332      0          0          0.503     
MH4668005457     193.55     3.557      0          0          1.047     
MH4668404135     164.38     5.51       0          0          0         
MH4668504445     175.47     4.435      0          0          0.014     
MH4670104752     183.19     5.032      0          0          0.164     
MH4670304619     180.34     4.679      0          0          1.952     
MH4674202952     179.44     3.585      0          0          1.124     
MH4674303060     179.19     5.541      0          0          0.241     
MH4674804753     183.985    4.849      0          0          1.088     
MH4676003457     178.5      4.352      0          0          0.273     
MH4676405537     194.575    3.255      0          0          2.969     
MH4678203925     178.39     3.198      0          0          0.748     
MH4680404100     165.268    5.347      0          0          2.718     
MH4681003543     177.85     4.272      0          0          2.635     
MH4681605124     193.48     4.568      0          0          5.259     
MH4683103991     177.09     2.754      0          0          0.329     
MH4685404231     173.62     6.322      0          0          0         
MH4686203693     176.91     5.388      0          0          0.563     
MH4686602871     180.59     3.454      0          0          1.14      
MH4686904023     175.07     4.014      0          0          0.354     
MH4687103249     182.02     3.712      0          0          1.749     
MH4687305745     193.93     4          0          0          2.377     
MH4687502796     178.796    3.89       0          0          0.417     
MH4687705482     195.25     2.631      0          0          0.594     
MH4689602642     176.414    4.062      0          0          0.651     
MH4690004897     189.62     5.34       0          0          0.541     
MH4690603361     181.06     3.216      0          0          0.62      
MH4691802575     177.11     3.432      0          0          0.261     
MH4692003803     176.6      6.231      0          0          0.427     
MH4692104967     191.36     5.836      0          0          0.018     